.SUBCKT VS-ETH3007 1 2
D1 1 2 part0
.MODEL part0 D(
+ IS=1.0000E-9
+ N=1.8233
+ RS=13.503E-3
+ IKF=.38909
+ CJO=555.31E-12
+ M=.46099
+ VJ=.3905
+ ISR=493.88E-12
+ NR=4.9950
+ BV=750
+ IBV=100.00E-6
+ TT=21.640E-9 )
.ENDS VS-ETH3007
