.SUBCKT VS-ETU1506 1 2
D1 1 2 part0
.MODEL part0 D(
+ IS=1.0000E-9
+ N=1.7386
+ RS=9.8602E-3
+ IKF=.37517
+ CJO=279.37E-12
+ M=.46412
+ VJ=.3905
+ ISR=160.92E-12
+ NR=4.9950
+ BV=650
+ IBV=100.00E-6
+ TT=25.996E-9 )
.ENDS VS-ETU1506
