Version 4
SHEET 1 1412 680
WIRE -192 64 -400 64
WIRE -64 64 -160 64
WIRE 64 64 -64 64
WIRE 256 64 64 64
WIRE 384 64 256 64
WIRE 576 64 464 64
WIRE 736 64 576 64
WIRE 752 64 736 64
WIRE 64 96 64 64
WIRE -400 128 -400 64
WIRE 256 128 256 64
WIRE 576 128 576 64
WIRE 752 128 752 64
WIRE 960 128 960 64
WIRE -192 144 -192 64
WIRE -160 144 -160 64
WIRE 64 208 64 176
WIRE -176 256 -176 208
WIRE 256 256 256 192
WIRE 576 256 576 192
WIRE 576 256 256 256
WIRE 752 256 752 208
WIRE 752 256 576 256
WIRE 960 272 960 208
WIRE -400 288 -400 208
WIRE 64 288 64 272
WIRE 752 288 752 256
FLAG -400 288 0
FLAG 752 288 0
FLAG 960 64 Vg
FLAG -176 256 Vg
FLAG -64 64 Vs
FLAG 960 272 Vs
FLAG 736 64 OUT
FLAG -400 64 IN
FLAG 64 288 0
SYMBOL voltage -400 112 R0
WINDOW 123 0 0 Left 0
WINDOW 39 0 0 Left 0
SYMATTR InstName SOURCE
SYMATTR Value 133
SYMBOL ind 368 80 R270
WINDOW 0 32 56 VTop 2
WINDOW 3 5 56 VBottom 2
SYMATTR InstName L
SYMATTR Value 27µ
SYMATTR SpiceLine Rser=8m
SYMBOL cap 560 128 R0
SYMATTR InstName C
SYMATTR Value 56µ
SYMATTR SpiceLine V=100 Rser=96m
SYMBOL res 736 112 R0
SYMATTR InstName LOAD
SYMATTR Value 5.76
SYMBOL voltage 960 112 R0
WINDOW 123 0 0 Left 0
WINDOW 39 0 0 Left 0
SYMATTR InstName PWM
SYMATTR Value PULSE(0 20 0 10n 10n {D*Ts} {Ts})
SYMBOL AutoGenerated\\STP34NM60N -176 176 R270
SYMATTR InstName S1
SYMBOL AutoGenerated\\VS-ETU1506 256 160 R270
SYMATTR InstName D1
SYMBOL cap 48 208 R0
SYMATTR InstName Csnb
SYMATTR Value 56p
SYMBOL res 48 80 R0
SYMATTR InstName Rsnb
SYMATTR Value 47
TEXT 512 -48 Left 2 !.tran 0 600u 500u
TEXT 512 -80 Left 2 !.param Ts=10u D=0.363
TEXT -392 -176 Left 2 !.meas Vo AVG V(OUT)
TEXT -392 -144 Left 2 !.meas Io AVG I(LOAD)
TEXT -392 -112 Left 2 !.meas Pout AVG V(OUT)*I(LOAD)
TEXT -392 -80 Left 2 !.meas Pin AVG -V(IN)*I(SOURCE)
TEXT -392 -48 Left 2 !.meas Eff param Pout/Pin
TEXT 512 -144 Left 2 !.meas ID AVG Ix(D1:1)
TEXT 512 -176 Left 2 !.meas IL AVG I(L)
TEXT 512 -112 Left 2 !.meas IS AVG Ix(S1:D)
