Version 4
SHEET 1 1300 680
WIRE -192 64 -400 64
WIRE -64 64 -160 64
WIRE 64 64 -64 64
WIRE 192 64 64 64
WIRE 384 64 272 64
WIRE 544 64 384 64
WIRE 560 64 544 64
WIRE -400 128 -400 64
WIRE 64 128 64 64
WIRE 384 128 384 64
WIRE 560 128 560 64
WIRE 768 128 768 64
WIRE -192 144 -192 64
WIRE -160 144 -160 64
WIRE -176 256 -176 208
WIRE 64 256 64 192
WIRE 384 256 384 192
WIRE 384 256 64 256
WIRE 560 256 560 208
WIRE 560 256 384 256
WIRE 768 272 768 208
WIRE -400 288 -400 208
WIRE 560 288 560 256
FLAG -400 288 0
FLAG 560 288 0
FLAG 768 64 Vg
FLAG -176 256 Vg
FLAG -64 64 Vs
FLAG 768 272 Vs
FLAG 544 64 OUT
FLAG -400 64 IN
SYMBOL voltage -400 112 R0
WINDOW 123 0 0 Left 0
WINDOW 39 0 0 Left 0
SYMATTR InstName SOURCE
SYMATTR Value 140
SYMBOL ind 176 80 R270
WINDOW 0 32 56 VTop 2
WINDOW 3 5 56 VBottom 2
SYMATTR InstName L
SYMATTR Value 27µ
SYMATTR SpiceLine Rser=8m
SYMBOL cap 368 128 R0
SYMATTR InstName C
SYMATTR Value 56µ
SYMATTR SpiceLine V=100 Rser=96m
SYMBOL res 544 112 R0
SYMATTR InstName LOAD
SYMATTR Value 5.76
SYMBOL voltage 768 112 R0
WINDOW 123 0 0 Left 0
WINDOW 39 0 0 Left 0
SYMATTR InstName PWM
SYMATTR Value PULSE(0 20 0 10n 10n {D*Ts} {Ts})
SYMBOL AutoGenerated\\STP34NM60N -176 176 R270
SYMATTR InstName S1
SYMBOL AutoGenerated\\VS-ETU1506 64 160 R270
SYMATTR InstName D1
TEXT 320 -48 Left 2 !.tran 0 2m 1.8m
TEXT 320 -80 Left 2 !.param Ts=10u D=0.363
TEXT -392 -176 Left 2 !.meas Vo AVG V(OUT)
TEXT -392 -144 Left 2 !.meas Io AVG I(LOAD)
TEXT -392 -112 Left 2 !.meas Pout AVG V(OUT)*I(LOAD)
TEXT -392 -80 Left 2 !.meas Pin AVG -V(IN)*I(SOURCE)
TEXT -392 -48 Left 2 !.meas Eff param Pout/Pin
TEXT 320 -144 Left 2 !.meas ID AVG Ix(D1:1)
TEXT 320 -176 Left 2 !.meas IL AVG I(L)
TEXT 320 -112 Left 2 !.meas IS AVG Ix(S1:D)
