Version 4
SHEET 1 1700 1012
WIRE -192 64 -400 64
WIRE -64 64 -160 64
WIRE 64 64 -64 64
WIRE 192 64 64 64
WIRE 384 64 272 64
WIRE 720 64 384 64
WIRE 1024 64 720 64
WIRE 1040 64 1024 64
WIRE 720 112 720 64
WIRE -400 128 -400 64
WIRE 64 128 64 64
WIRE 384 128 384 64
WIRE 1040 128 1040 64
WIRE -192 144 -192 64
WIRE -160 144 -160 64
WIRE 720 240 720 192
WIRE 720 240 608 240
WIRE -176 256 -176 208
WIRE 64 256 64 192
WIRE 384 256 384 192
WIRE 384 256 64 256
WIRE -400 288 -400 208
WIRE 64 288 64 256
WIRE 720 288 720 240
WIRE 1040 288 1040 208
WIRE 720 416 720 368
WIRE 288 432 -128 432
WIRE 608 432 608 240
WIRE 608 432 368 432
WIRE -128 544 -128 432
WIRE -16 544 -128 544
WIRE 144 544 64 544
WIRE 480 688 480 640
WIRE -384 704 -384 624
WIRE 16 704 16 656
WIRE 448 704 352 704
WIRE 1040 704 1040 624
WIRE -128 720 -128 544
WIRE -16 720 -128 720
WIRE 736 720 512 720
WIRE 144 736 144 544
WIRE 144 736 48 736
WIRE 448 736 144 736
WIRE -16 752 -128 752
WIRE 480 800 480 752
WIRE 16 816 16 768
WIRE -128 832 -128 752
WIRE 352 832 352 704
WIRE -384 848 -384 784
WIRE 1040 848 1040 784
WIRE -128 976 -128 912
WIRE 352 976 352 912
FLAG -400 288 0
FLAG 1040 288 0
FLAG -176 256 Vg
FLAG -64 64 Vs
FLAG 1024 64 OUT
FLAG -400 64 IN
FLAG 64 288 0
FLAG 720 416 0
FLAG 16 816 0
FLAG 480 800 0
FLAG -384 848 0
FLAG -384 624 V+
FLAG 480 640 V+
FLAG 16 656 V+
FLAG -128 976 0
FLAG 352 976 0
FLAG 736 720 PWM
FLAG 1040 624 Vg
FLAG 1040 848 Vs
SYMBOL voltage -400 112 R0
WINDOW 123 0 0 Left 0
WINDOW 39 0 0 Left 0
SYMATTR InstName SOURCE
SYMATTR Value 140
SYMBOL ind 176 80 R270
WINDOW 0 32 56 VTop 2
WINDOW 3 5 56 VBottom 2
SYMATTR InstName L
SYMATTR Value 27µ
SYMATTR SpiceLine Rser=8m
SYMBOL cap 368 128 R0
SYMATTR InstName C
SYMATTR Value 56µ
SYMATTR SpiceLine V=100 Rser=96m
SYMBOL res 1024 112 R0
SYMATTR InstName LOAD
SYMATTR Value 5.76
SYMBOL AutoGenerated\\STP34NM60N -176 176 R270
SYMATTR InstName S1
SYMBOL AutoGenerated\\VS-ETU1506 64 160 R270
SYMATTR InstName D1
SYMBOL res 704 96 R0
SYMATTR InstName R1
SYMATTR Value 100k
SYMBOL res 704 272 R0
SYMATTR InstName R2
SYMATTR Value 6.8k
SYMBOL res 384 416 R90
WINDOW 0 0 56 VBottom 2
WINDOW 3 32 56 VTop 2
SYMATTR InstName R3
SYMATTR Value 1k
SYMBOL OpAmps\\AD8030 16 672 R0
SYMATTR InstName U1
SYMBOL OpAmps\\AD8030 480 656 R0
SYMATTR InstName U2
SYMBOL res 80 528 R90
WINDOW 0 0 56 VBottom 2
WINDOW 3 32 56 VTop 2
SYMATTR InstName R4
SYMATTR Value 560
SYMBOL voltage -384 688 R0
WINDOW 123 0 0 Left 0
WINDOW 39 0 0 Left 0
SYMATTR InstName V1
SYMATTR Value 10
SYMBOL voltage -128 816 R0
WINDOW 123 0 0 Left 0
WINDOW 39 0 0 Left 0
SYMATTR InstName V2
SYMATTR Value 1.775
SYMBOL voltage 352 816 R0
WINDOW 123 0 0 Left 0
WINDOW 39 0 0 Left 0
SYMATTR InstName V3
SYMATTR Value PULSE(0 5 0 5u 5u 0 10u)
SYMBOL bv 1040 688 R0
SYMATTR InstName B1
SYMATTR Value V=IF(V(PWM) > 0.5,20,0)
TEXT 320 -48 Left 2 !.tran 0 3m 2.5m
TEXT -392 -176 Left 2 !.meas Vo AVG V(OUT)
TEXT -392 -144 Left 2 !.meas Io AVG I(LOAD)
TEXT -392 -112 Left 2 !.meas Pout AVG V(OUT)*I(LOAD)
TEXT -392 -80 Left 2 !.meas Pin AVG -V(IN)*I(SOURCE)
TEXT -392 -48 Left 2 !.meas Eff param Pout/Pin
TEXT 320 -144 Left 2 !.meas ID AVG Ix(D1:1)
TEXT 320 -176 Left 2 !.meas IL AVG I(L)
TEXT 320 -112 Left 2 !.meas IS AVG Ix(S1:D)
