Version 4
SHEET 1 1412 680
WIRE -912 64 -1184 64
WIRE -640 64 -752 64
WIRE -512 64 -640 64
WIRE -352 64 -512 64
WIRE -192 64 -352 64
WIRE -64 64 -160 64
WIRE 64 64 -64 64
WIRE 256 64 64 64
WIRE 384 64 256 64
WIRE 576 64 464 64
WIRE 736 64 576 64
WIRE 752 64 736 64
WIRE 64 96 64 64
WIRE -1184 128 -1184 64
WIRE -640 128 -640 64
WIRE -512 128 -512 64
WIRE 256 128 256 64
WIRE 576 128 576 64
WIRE 752 128 752 64
WIRE 960 128 960 64
WIRE -912 144 -912 64
WIRE -864 144 -912 144
WIRE -752 144 -752 64
WIRE -752 144 -800 144
WIRE -192 144 -192 64
WIRE -160 144 -160 64
WIRE -864 176 -912 176
WIRE -752 176 -800 176
WIRE 64 208 64 176
WIRE -1184 256 -1184 208
WIRE -912 256 -912 176
WIRE -912 256 -1184 256
WIRE -752 256 -752 176
WIRE -640 256 -640 192
WIRE -640 256 -752 256
WIRE -512 256 -512 192
WIRE -512 256 -640 256
WIRE -176 256 -176 208
WIRE 256 256 256 192
WIRE 576 256 576 192
WIRE 576 256 256 256
WIRE 752 256 752 208
WIRE 752 256 576 256
WIRE 960 272 960 208
WIRE -752 288 -752 256
WIRE 64 288 64 272
WIRE 752 288 752 256
FLAG -752 288 0
FLAG 752 288 0
FLAG 960 64 Vg
FLAG -176 256 Vg
FLAG -64 64 Vs
FLAG 960 272 Vs
FLAG 736 64 OUT
FLAG -1184 64 IN
FLAG 64 288 0
FLAG -352 64 OUT_raddrizzatore
SYMBOL voltage -1184 112 R0
WINDOW 123 0 0 Left 0
WINDOW 39 0 0 Left 0
SYMATTR InstName SOURCE
SYMATTR Value SINE(0 171.12 60)
SYMBOL ind 368 80 R270
WINDOW 0 32 56 VTop 2
WINDOW 3 5 56 VBottom 2
SYMATTR InstName L
SYMATTR Value 27µ
SYMATTR SpiceLine Rser=8m
SYMBOL cap 560 128 R0
SYMATTR InstName C
SYMATTR Value 56µ
SYMATTR SpiceLine V=100 Rser=96m
SYMBOL res 736 112 R0
SYMATTR InstName LOAD
SYMATTR Value 5.76
SYMBOL voltage 960 112 R0
WINDOW 123 0 0 Left 0
WINDOW 39 0 0 Left 0
SYMATTR InstName PWM
SYMATTR Value PULSE(0 20 0 10n 10n {D*Ts} {Ts})
SYMBOL AutoGenerated\\STP34NM60N -176 176 R270
SYMATTR InstName S1
SYMBOL AutoGenerated\\VS-ETU1506 256 160 R270
SYMATTR InstName D1
SYMBOL cap 48 208 R0
SYMATTR InstName Csnb
SYMATTR Value 56p
SYMBOL res 48 80 R0
SYMATTR InstName Rsnb
SYMATTR Value 47
SYMBOL AutoGenerated\\GBUE2560 -832 160 R0
SYMATTR InstName B1
SYMBOL cap -656 128 R0
SYMATTR InstName C1
SYMATTR Value 2400µf
SYMATTR SpiceLine V=400 Rser=63m
SYMBOL cap -528 128 R0
SYMATTR InstName C2
SYMATTR Value 2400µf
SYMATTR SpiceLine V=400 Rser=63m
TEXT -1152 384 Left 2 !.tran 0 10m 6m
TEXT -1152 352 Left 2 !.param Ts=10u D=0.2855
TEXT -768 352 Left 2 !.meas Vo AVG V(OUT)
TEXT -768 384 Left 2 !.meas Io AVG I(LOAD)
TEXT -416 352 Left 2 !.meas Pout AVG V(OUT)*I(LOAD)
TEXT -416 384 Left 2 !.meas Pin AVG -V(IN)*I(SOURCE)
TEXT 80 352 Left 2 !.meas Eff param Pout/Pin
TEXT 480 352 Left 2 !.meas ID AVG Ix(D1:1)
TEXT 80 384 Left 2 !.meas IL AVG I(L)
TEXT 480 384 Left 2 !.meas IS AVG Ix(S1:D)
TEXT 848 352 Left 2 !.meas IB AVG Ix(B1:+)
