Version 4
SHEET 1 1300 680
WIRE -768 -96 -912 -96
WIRE -544 -96 -704 -96
WIRE -416 -96 -544 -96
WIRE -224 -96 -416 -96
WIRE -912 32 -912 -96
WIRE -544 32 -544 -96
WIRE -416 32 -416 -96
WIRE -224 32 -224 -96
WIRE -912 240 -912 112
WIRE -544 240 -544 96
WIRE -544 240 -912 240
WIRE -416 240 -416 96
WIRE -416 240 -544 240
WIRE -224 240 -224 112
WIRE -224 240 -416 240
WIRE -912 288 -912 240
FLAG -912 288 0
FLAG -912 -96 IN
FLAG -224 -96 OUT
SYMBOL voltage -912 16 R0
WINDOW 123 0 0 Left 0
WINDOW 39 0 0 Left 0
SYMATTR InstName SOURCE
SYMATTR Value SINE(0 140 60)
SYMBOL cap -560 32 R0
SYMATTR InstName C1
SYMATTR Value 4700µf
SYMATTR SpiceLine V=400 Rser=33m
SYMBOL res -240 16 R0
SYMATTR InstName R1
SYMATTR Value 42.88
SYMBOL AutoGenerated\\VS-ETH3007 -736 -96 R0
SYMATTR InstName D1
SYMBOL cap -432 32 R0
SYMATTR InstName C2
SYMATTR Value 4700µf
SYMATTR SpiceLine V=400 Rser=33m
TEXT -800 304 Left 2 !.tran 50m
TEXT -504 304 Left 2 !.meas ID AVG Ix(D1:1)
TEXT -504 328 Left 2 !.meas Vo AVG V(OUT)
